Watershed atmospheric deposition file      .atm file 5/19/2025 12:00:00 AM ArcSWAT 2012.10_7.23




             0.000     0.000     0.000     0.000
             0.000     0.000     0.000     0.000
             0.000     0.000     0.000     0.000
