 .Sol file Watershed HRU:5 Subbasin:1 HRU:5 Luse:WETN Soil: I-Bh-Tv-c-5518 Slope: 0-4.0 5/31/2025 12:00:00 AM ArcSWAT 2012.10_8.26
 Soil Name: I-Bh-Tv-c-5518
 Soil Hydrologic Group: C
 Maximum rooting depth(mm) :  670.00
 Porosity fraction from which anions are excluded: 0.500
 Crack volume potential of soil: 0.500
 Texture 1                : LOAM
 Depth                [mm]:      300.00     1000.00
 Bulk Density Moist [g/cc]:        1.00        1.10
 Ave. AW Incl. Rock Frag  :        0.12        0.12
 Ksat. (est.)      [mm/hr]:        3.18        3.18
 Organic Carbon [weight %]:        2.80        1.20
 Clay           [weight %]:       19.00       21.00
 Silt           [weight %]:       43.00       31.00
 Sand           [weight %]:       39.00       47.00
 Rock Fragments   [vol. %]:        0.00        0.00
 Soil Albedo (Moist)      :        0.00        0.05
 Erosion K                :        0.27        0.27
 Salinity (EC, Form 5)    :        0.00        0.00
 Soil pH                  :        0.00        0.00
 Soil CACO3               :        0.00        0.00
                              
